/*--------------------------------*- C++ -*----------------------------------*\
| =========                 |                                                 |
| \\      /  F ield         | OpenFOAM: The Open Source CFD Toolbox           |
|  \\    /   O peration     | Version:  x.x                                   |
|   \\  /    A nd           | Web:      www.OpenFOAM.org                      |
|    \\/     M anipulation  |                                                 |
\*---------------------------------------------------------------------------*/
FoamFile
{
    version     2.0;
    format      ascii;
    class       scalarAverageField;
    object      values;
}
// * * * * * * * * * * * * * * * * * * * * * * * * * * * * * * * * * * * * * //

// Average
0

// Data on points
28
(
// min
0
0.529
0.606
0.667
0.666
0.73
0.75
0.744
0.694
0.635
0.456
0.281
0.126
0.068
// max
0
0.529
0.606
0.667
0.666
0.73
0.75
0.744
0.694
0.635
0.456
0.281
0.126
0.068
)

// ************************************************************************* //
