/*--------------------------------*- C++ -*----------------------------------*\
| =========                 |                                                 |
| \\      /  F ield         | OpenFOAM: The Open Source CFD Toolbox           |
|  \\    /   O peration     | Version:  2.1.x                                 |
|   \\  /    A nd           | Web:      www.OpenFOAM.org                      |
|    \\/     M anipulation  |                                                 |
\*---------------------------------------------------------------------------*/
FoamFile
{
    version     2.0;
    format      ascii;
    class       dictionary;
    object      sampleDict;
}
// * * * * * * * * * * * * * * * * * * * * * * * * * * * * * * * * * * * * * //

setFormat raw;

surfaceFormat foamFile;

interpolationScheme cellPointFace;

fields
(
    U
    magU
    k
);

sets
(

    measuringPoints
    {
        type cloud;
        axis xyz;
        points          
        (
(-0.19 0.146 0.008) // 16
(-0.224 0.132 0.008) // 24
(-0.204 0.088 0.008) // 25
(-0.186 0.044 0.008) // 26
(-0.156 0.064 0.008) // 27
(-0.158 -0.016 0.008) // 28
(-0.128 0 0.008) // 29
(-0.156 -0.044 0.008) // 30
(-0.222 -0.092 0.008) // 37
(-0.104 -0.04 0.008) // 38
(0.118 0.06 0.008) // 41
(0.152 0.022 0.008) // 56
(0.296 0.088 0.008) // 57
(0.252 0.002 0.008) // 58
(0.202 -0.09 0.008) // 59
(0.354 -0.024 0.008) // 60
(0.124 0 0.008) // 61
(0.158 -0.08 0.008) // 62
(0.37 0.08 0.008) // 63
(0.402 0.014 0.008) // 64
(0.186 -0.134 0.008) // 70
(0.266 -0.098 0.008) // 71
(0.328 -0.07 0.008) // 72
(0.394 -0.038 0.008) // 73
(-0.036 -0.01 0.008) // 39
(0.026 0.018 0.008) // 40
(-0.182 -0.18 0.008) // 50
(-0.098 -0.078 0.008) // 51
(-0.124 -0.094 0.008) // 52
(-0.098 -0.152 0.008) // 53
(-0.08 -0.122 0.008) // 54
(-0.044 -0.2 0.008) // 55
(0.436 -0.07 0.008) // 75
(0.464 -0.122 0.008) // 76
(-0.372 0.132 0.008) // 2
(-0.352 0.14 0.008) // 3
(-0.296 0.16 0.008) // 4
(-0.244 0.182 0.008) // 5
(-0.336 0.09 0.008) // 14
(-0.262 0.118 0.008) // 15
(-0.362 0.032 0.008) // 23
(-0.3 -0.126 0.008) // 36
(0.212 0.104 0.008) // 42
(0.27 0.13 0.008) // 43
(0.332 0.156 0.008) // 44
(-0.108 0.448 0.008) // 1
(-0.202 0.198 0.008) // 6
(-0.134 0.23 0.008) // 7
(-0.038 0.276 0.008) // 8
(0.028 0.306 0.008) // 9
(0.18 0.376 0.008) // 10
(0.322 0.44 0.008) // 11
(-0.532 0.084 0.008) // 12
(-0.388 0.076 0.008) // 13
(-0.1 0.188 0.008) // 17
(-0.02 0.224 0.008) // 18
(0.054 0.258 0.008) // 19
(0.2 0.326 0.008) // 20
(0.348 0.39 0.008) // 21
(-0.458 -0.032 0.008) // 22
(0.026 0.208 0.008) // 31
(0.262 0.298 0.008) // 32
(0.294 0.226 0.008) // 33
(-0.47 -0.128 0.008) // 34
(-0.346 -0.142 0.008) // 35
(0.482 0.226 0.008) // 45
(-0.484 -0.226 0.008) // 46
(-0.308 -0.236 0.008) // 48
(-0.238 -0.206 0.008) // 49
(-0.332 -0.376 0.008) // 65
(-0.198 -0.314 0.008) // 66
(-0.04 -0.238 0.008) // 67
(0.004 -0.216 0.008) // 68
(0.104 -0.172 0.008) // 69
(0.226 -0.218 0.008) // 74
(0.02 -0.376 0.008) // 77
(0.182 -0.346 0.008) // 78
(0.326 -0.278 0.008) // 79
(0.5 -0.198 0.008) // 80
);
}
);

surfaces
(
);

// *********************************************************************** //
