/*--------------------------------*- C++ -*----------------------------------*\
| =========                 |                                                 |
| \\      /  F ield         | OpenFOAM: The Open Source CFD Toolbox           |
|  \\    /   O peration     | Version:  2.1.x                                 |
|   \\  /    A nd           | Web:      www.OpenFOAM.org                      |
|    \\/     M anipulation  |                                                 |
\*---------------------------------------------------------------------------*/
FoamFile
{
    version     2.0;
    format      ascii;
    class       dictionary;
    object      setDiscreteFieldsDict;
}
// * * * * * * * * * * * * * * * * * * * * * * * * * * * * * * * * * * * * * //

Fields
(
Uprofile
{
field U;
type vector;
direction "z";
internal true;
patchNames
(
x_
);
profile
(
(0 0 0 0 0 0)
(0 0 0.005 2.847 0 0)
(0 0 0.01 3.042 0 0)
(0 0 0.02 3.2604 0 0)
(0 0 0.03 3.4086 0 0)
(0 0 0.05 3.7674 0 0)
(0 0 0.1 4.3602 0 0)
(0 0 0.2 5.109 0 0)
(0 0 0.3 5.694 0 0)
(0 0 0.4 6.162 0 0)
(0 0 0.6 6.9654 0 0)
(0 0 0.8 7.3944 0 0)
(0 0 1 7.8 0 0)
);
}
kProfile
{
field k;
type scalar;
direction "z";
internal true;
patchNames
(
x_
);
profile
(
(0 0 0 0)
(0 0 0.005 0.48672)
(0 0 0.01 0.54756)
(0 0 0.02 0.54756)
(0 0 0.03 0.54756)
(0 0 0.05 0.6084)
(0 0 0.1 0.6084)
(0 0 0.2 0.54756)
(0 0 0.3 0.48672)
(0 0 0.4 0.42588)
(0 0 0.6 0.36504)
(0 0 0.8 0.24336)
(0 0 1 0.12168)
);
}
epsilonProfile
{
field epsilon;
type scalar;
direction "z";
internal true;
patchNames
(
x_
);
profile
(
(0 0 0 0)
(0 0 0.005 44.4181)
(0 0 0.01 4.52723)
(0 0 0.02 3.01103)
(0 0 0.03 2.77613)
(0 0 0.05 2.48123)
(0 0 0.1 1.63246)
(0 0 0.2 1.0955)
(0 0 0.3 0.768774)
(0 0 0.4 0.541464)
(0 0 0.6 0.337406)
(0 0 0.8 0.152331)
(0 0 1 0.0740301)
);
}
);

// ************************************************************************* //
