/*--------------------------------*- C++ -*----------------------------------*\
| =========                 |                                                 |
| \\      /  F ield         | OpenFOAM: The Open Source CFD Toolbox           |
|  \\    /   O peration     | Version:  x.x                                   |
|   \\  /    A nd           | Web:      www.OpenFOAM.org                      |
|    \\/     M anipulation  |                                                 |
\*---------------------------------------------------------------------------*/
FoamFile
{
    version     2.0;
    format      ascii;
    class       scalarAverageField;
    object      values;
}
// * * * * * * * * * * * * * * * * * * * * * * * * * * * * * * * * * * * * * //

// Average
0

// Data on points
28
(
// min
0
65.4003
8.19312
3.55178
2.94372
2.79069
2.4615
1.85479
1.31999
1.0795
0.67545
0.283669
0.051597
0.004794
// max
0
65.4003
8.19312
3.55178
2.94372
2.79069
2.4615
1.85479
1.31999
1.0795
0.67545
0.283669
0.051597
0.004794
)

// ************************************************************************* //
