/*--------------------------------*- C++ -*----------------------------------*\
| =========                 |                                                 |
| \\      /  F ield         | OpenFOAM: The Open Source CFD Toolbox           |
|  \\    /   O peration     | Version:  x.x                                   |
|   \\  /    A nd           | Web:      www.OpenFOAM.org                      |
|    \\/     M anipulation  |                                                 |
\*---------------------------------------------------------------------------*/
FoamFile
{
    version     2.0;
    format      ascii;
    class       vectorAverageField;
    object      values;
}
// * * * * * * * * * * * * * * * * * * * * * * * * * * * * * * * * * * * * * //

// Average
(0 0 0)

// Data on points
28
(
// min
(0 0 0)
(3.833 0 0)
(4.121 0 0)
(4.321 0 0)
(4.476 0 0)
(4.74 0 0)
(5.32 0 0)
(6.282 0 0)
(6.982 0 0)
(7.55 0 0)
(8.678 0 0)
(9.525 0 0)
(10.024 0 0)
(10.071 0 0)
// max
(0 0 0)
(3.833 0 0)
(4.121 0 0)
(4.321 0 0)
(4.476 0 0)
(4.74 0 0)
(5.32 0 0)
(6.282 0 0)
(6.982 0 0)
(7.55 0 0)
(8.678 0 0)
(9.525 0 0)
(10.024 0 0)
(10.071 0 0)
)

// ************************************************************************* //
