/*--------------------------------*- C++ -*----------------------------------*\
| =========                 |                                                 |
| \\      /  F ield         | OpenFOAM: The Open Source CFD Toolbox           |
|  \\    /   O peration     | Version:  2.1.x                                 |
|   \\  /    A nd           | Web:      www.OpenFOAM.org                      |
|    \\/     M anipulation  |                                                 |
\*---------------------------------------------------------------------------*/
FoamFile
{
    version     2.0;
    format      ascii;
    class       dictionary;
    object      controlDict;
}
// * * * * * * * * * * * * * * * * * * * * * * * * * * * * * * * * * * * * * //

application simpleFoam;

startFrom       startTime;

startTime       0;

stopAt          endTime;

endTime         3000;

deltaT          1;

writeControl    timeStep;

writeInterval   100;

purgeWrite      1;

writeFormat     binary;

writePrecision  8;

writeCompression uncompressed;

timeFormat      general;

timePrecision   6;

runTimeModifiable yes;

// ************************************************************************* //
