/*--------------------------------*- C++ -*----------------------------------*\
| =========                 |                                                 |
| \\      /  F ield         | OpenFOAM: The Open Source CFD Toolbox           |
|  \\    /   O peration     | Version:  2.1.x                                 |
|   \\  /    A nd           | Web:      www.OpenFOAM.org                      |
|    \\/     M anipulation  |                                                 |
\*---------------------------------------------------------------------------*/
FoamFile
{
    version     2.0;
    format      ascii;
    class       dictionary;
    object      setDiscreteFieldsDict;
}
// * * * * * * * * * * * * * * * * * * * * * * * * * * * * * * * * * * * * * //

Fields
(
Uprofile
{
field U;
type vector;
direction "z";
internal true;
patchNames
(
_x
_y
);
profile
(
(0 0 0 -0 -0 0)
(0 0 0.005 -1.0895 -2.63029 0)
(0 0 0.01 -1.16412 -2.81044 0)
(0 0 0.02 -1.2477 -3.01222 0)
(0 0 0.03 -1.30441 -3.14914 0)
(0 0 0.05 -1.44172 -3.48062 0)
(0 0 0.1 -1.66858 -4.0283 0)
(0 0 0.2 -1.95513 -4.7201 0)
(0 0 0.3 -2.179 -5.26057 0)
(0 0 0.4 -2.3581 -5.69295 0)
(0 0 0.6 -2.66554 -6.43519 0)
(0 0 0.8 -2.82971 -6.83153 0)
(0 0 1 -2.98493 -7.20626 0)
);
}
kProfile
{
field k;
type scalar;
direction "z";
internal true;
patchNames
(
_x
_y
);
profile
(
(0 0 0 0)
(0 0 0.005 0.48672)
(0 0 0.01 0.54756)
(0 0 0.02 0.54756)
(0 0 0.03 0.54756)
(0 0 0.05 0.6084)
(0 0 0.1 0.6084)
(0 0 0.2 0.54756)
(0 0 0.3 0.48672)
(0 0 0.4 0.42588)
(0 0 0.6 0.36504)
(0 0 0.8 0.24336)
(0 0 1 0.12168)
);
}
epsilonProfile
{
field epsilon;
type scalar;
direction "z";
internal true;
patchNames
(
_x
_y
);
profile
(
(0 0 0 0)
(0 0 0.005 44.4181)
(0 0 0.01 4.52723)
(0 0 0.02 3.01103)
(0 0 0.03 2.77613)
(0 0 0.05 2.48123)
(0 0 0.1 1.63246)
(0 0 0.2 1.0955)
(0 0 0.3 0.768774)
(0 0 0.4 0.541464)
(0 0 0.6 0.337406)
(0 0 0.8 0.152331)
(0 0 1 0.0740301)
);
}
);

// ************************************************************************* //
