/*--------------------------------*- C++ -*----------------------------------*\
| =========                 |                                                 |
| \\      /  F ield         | OpenFOAM: The Open Source CFD Toolbox           |
|  \\    /   O peration     | Version:  dev                                   |
|   \\  /    A nd           | Web:      http://www.openfoam.org               |
|    \\/     M anipulation  |                                                 |
\*---------------------------------------------------------------------------*/

FoamFile
{
    version         2.0;
    format          ascii;
    class           dictionary;
    location        system;
    object          sampleDict;
}

// * * * * * * * * * * * * * * * * * * * * * * * * * * * * * * * * * * * * //

// Set output format : choice of
//      xmgr
//      jplot
//      gnuplot
//      raw
setFormat raw;

// Surface output format. Choice of
//      null        : suppress output
//      foamFile    : separate points, faces and values file
//      dx          : DX scalar or vector format
//      vtk         : VTK ascii format
//      raw         : x y z value format for use with e.g. gnuplot 'splot'.
//      stl         : ascii stl. Does not contain values!
surfaceFormat raw;

// interpolationScheme. choice of
//	cell          : use cell-centre value only; constant over cells (default)
//	cellPoint     : use cell-centre and vertex values
//	cellPointFace : use cell-centre, vertex and face values.
// 1] vertex values determined from neighbouring cell-centre values
// 2] face values determined using the current face interpolation scheme
//    for the field (linear, gamma, etc.)
interpolationScheme cellPointFace;

// Fields to sample.
fields
(
 U
 k
);


// Set sampling definition: choice of
//      uniform             evenly distributed points on line
//      face                one point per face intersection
//      midPoint            one point per cell, inbetween two face intersections
//      midPointAndFace     combination of face and midPoint
//
//      curve               specified points, not nessecary on line, uses
//                          tracking
//      cloud               specified points, uses findCell
//
// axis: how to write point coordinate. Choice of
// - x/y/z: x/y/z coordinate only
// - xyz: three columns
//  (probably does not make sense for anything but raw)
// - distance: distance from start of sampling line (if uses line) or
//             distance from first specified sampling point
//
// type specific:
//      uniform, face, midPoint, midPointAndFace : start and end coordinate
//      uniform: extra number of sampling points
//      curve, cloud: list of coordinates
sets
(
    center
    {
      type uniform;
      axis x;
      start (0.025 0 0.0125);
      end (1.025 0 0.0125);
      nPoints 101;
    }
    vertical
    {
      type cloud;
      axis xyz;
      points
	(
(-0.075 0 0.35)
(-0.075 0 0.3)
(-0.075 0 0.275)
(-0.075 0 0.25)
(-0.075 0 0.225)
(-0.075 0 0.21)
(-0.075 0 0.2)
(-0.075 0 0.175)
(-0.075 0 0.15)
(-0.075 0 0.1)
(-0.075 0 0.05)
(-0.075 0 0.0125)
(-0.075 0 0.005)
(-0.025 0 0.35)
(-0.025 0 0.3)
(-0.025 0 0.275)
(-0.025 0 0.25)
(-0.025 0 0.225)
(-0.025 0 0.21)
(0 0 0.35)
(0 0 0.3)
(0 0 0.275)
(0 0 0.25)
(0 0 0.225)
(0 0 0.21)
(0.025 0 0.35)
(0.025 0 0.3)
(0.025 0 0.275)
(0.025 0 0.25)
(0.025 0 0.225)
(0.025 0 0.21)
(0.05 0 0.35)
(0.05 0 0.3)
(0.05 0 0.275)
(0.05 0 0.25)
(0.05 0 0.225)
(0.05 0 0.21)
(0.05 0 0.2)
(0.05 0 0.175)
(0.05 0 0.15)
(0.05 0 0.1)
(0.05 0 0.05)
(0.05 0 0.0125)
(0.05 0 0.005)
(0.1 0 0.35)
(0.1 0 0.3)
(0.1 0 0.275)
(0.1 0 0.25)
(0.1 0 0.225)
(0.1 0 0.21)
(0.1 0 0.2)
(0.1 0 0.175)
(0.1 0 0.15)
(0.1 0 0.1)
(0.1 0 0.05)
(0.1 0 0.0125)
(0.1 0 0.005)
(0.2 0 0.35)
(0.2 0 0.3)
(0.2 0 0.275)
(0.2 0 0.25)
(0.2 0 0.225)
(0.2 0 0.21)
(0.2 0 0.2)
(0.2 0 0.175)
(0.2 0 0.15)
(0.2 0 0.1)
(0.2 0 0.05)
(0.2 0 0.0125)
(0.2 0 0.005)
(0.3 0 0.35)
(0.3 0 0.3)
(0.3 0 0.275)
(0.3 0 0.25)
(0.3 0 0.225)
(0.3 0 0.21)
(0.3 0 0.2)
(0.3 0 0.175)
(0.3 0 0.15)
(0.3 0 0.1)
(0.3 0 0.05)
(0.3 0 0.0125)
(0.3 0 0.005)
(0.4 0 0.35)
(0.4 0 0.3)
(0.4 0 0.275)
(0.4 0 0.25)
(0.4 0 0.225)
(0.4 0 0.21)
(0.4 0 0.2)
(0.4 0 0.175)
(0.4 0 0.15)
(0.4 0 0.1)
(0.4 0 0.05)
(0.4 0 0.0125)
(0.4 0 0.005)
(0.55 0 0.35)
(0.55 0 0.3)
(0.55 0 0.275)
(0.55 0 0.25)
(0.55 0 0.225)
(0.55 0 0.21)
(0.55 0 0.2)
(0.55 0 0.175)
(0.55 0 0.15)
(0.55 0 0.1)
(0.55 0 0.05)
(0.55 0 0.0125)
(0.55 0 0.005)
	 );
    }

    horizontal
    {
      type cloud;
      axis xyz;
      points
	(
(-0.075 0 0.0125)
(-0.075 0.025 0.0125)
(-0.075 0.05 0.0125)
(-0.075 0.0755 0.0125)
(-0.075 0.1 0.0125)
(-0.075 0.11 0.0125)
(-0.075 0.1255 0.0125)
(-0.075 0.15 0.0125)
(-0.075 0.175 0.0125)
(-0.075 0.2 0.0125)
(-0.075 0.25 0.0125)
(-0.075 0.3 0.0125)
(-0.075 0.35 0.0125)
(-0.025 0.11 0.0125)
(-0.025 0.1255 0.0125)
(-0.025 0.15 0.0125)
(-0.025 0.175 0.0125)
(-0.025 0.2 0.0125)
(-0.025 0.25 0.0125)
(-0.025 0.3 0.0125)
(-0.025 0.35 0.0125)
(0 0.11 0.0125)
(0 0.1255 0.0125)
(0 0.15 0.0125)
(0 0.175 0.0125)
(0 0.2 0.0125)
(0 0.25 0.0125)
(0 0.3 0.0125)
(0 0.35 0.0125)
(0.025 0.11 0.0125)
(0.025 0.1255 0.0125)
(0.025 0.15 0.0125)
(0.025 0.175 0.0125)
(0.025 0.2 0.0125)
(0.025 0.25 0.0125)
(0.025 0.3 0.0125)
(0.025 0.35 0.0125)
(0.05 0 0.0125)
(0.05 0.025 0.0125)
(0.05 0.05 0.0125)
(0.05 0.0755 0.0125)
(0.05 0.1 0.0125)
(0.05 0.11 0.0125)
(0.05 0.1255 0.0125)
(0.05 0.15 0.0125)
(0.05 0.175 0.0125)
(0.05 0.2 0.0125)
(0.05 0.25 0.0125)
(0.05 0.3 0.0125)
(0.05 0.35 0.0125)
(0.1 0 0.0125)
(0.1 0.025 0.0125)
(0.1 0.05 0.0125)
(0.1 0.0755 0.0125)
(0.1 0.1 0.0125)
(0.1 0.11 0.0125)
(0.1 0.1255 0.0125)
(0.1 0.15 0.0125)
(0.1 0.175 0.0125)
(0.1 0.2 0.0125)
(0.1 0.25 0.0125)
(0.1 0.3 0.0125)
(0.1 0.35 0.0125)
(0.2 0 0.0125)
(0.2 0.025 0.0125)
(0.2 0.05 0.0125)
(0.2 0.0755 0.0125)
(0.2 0.1 0.0125)
(0.2 0.11 0.0125)
(0.2 0.1255 0.0125)
(0.2 0.15 0.0125)
(0.2 0.175 0.0125)
(0.2 0.2 0.0125)
(0.2 0.25 0.0125)
(0.2 0.3 0.0125)
(0.2 0.35 0.0125)
(0.3 0 0.0125)
(0.3 0.025 0.0125)
(0.3 0.05 0.0125)
(0.3 0.0755 0.0125)
(0.3 0.1 0.0125)
(0.3 0.11 0.0125)
(0.3 0.1255 0.0125)
(0.3 0.15 0.0125)
(0.3 0.175 0.0125)
(0.3 0.2 0.0125)
(0.3 0.25 0.0125)
(0.3 0.3 0.0125)
(0.3 0.35 0.0125)
(0.4 0 0.0125)
(0.4 0.025 0.0125)
(0.4 0.05 0.0125)
(0.4 0.0755 0.0125)
(0.4 0.1 0.0125)
(0.4 0.11 0.0125)
(0.4 0.1255 0.0125)
(0.4 0.15 0.0125)
(0.4 0.175 0.0125)
(0.4 0.2 0.0125)
(0.4 0.25 0.0125)
(0.4 0.3 0.0125)
(0.4 0.35 0.0125)
(0.55 0 0.0125)
(0.55 0.025 0.0125)
(0.55 0.05 0.0125)
(0.55 0.0755 0.0125)
(0.55 0.1 0.0125)
(0.55 0.11 0.0125)
(0.55 0.1255 0.0125)
(0.55 0.15 0.0125)
(0.55 0.175 0.0125)
(0.55 0.2 0.0125)
(0.55 0.25 0.0125)
(0.55 0.3 0.0125)
(0.55 0.35 0.0125)
	 );
    }
);

surfaces ();



// *********************************************************************** //
