/*--------------------------------*- C++ -*----------------------------------*\
| =========                 |                                                 |
| \\      /  F ield         | OpenFOAM: The Open Source CFD Toolbox           |
|  \\    /   O peration     | Version:  1.5                                   |
|   \\  /    A nd           | Web:      http://www.openfoam.org               |
|    \\/     M anipulation  |                                                 |
\*---------------------------------------------------------------------------*/

FoamFile
{
    version         2.0;
    format          ascii;
    class           dictionary;
    location        system;
    object          setDiscreteFieldsDict;
}
// * * * * * * * * * * * * * * * * * * * * * * * * * * * * * * * * * * * * //

Fields
(
	Uprofile
	{
		field U;        //targetField
                type vector;    //type "scalar" or "vector"
		direction "z";  //direction "x","y", or "z"
		internal false ;  //set internal field or not, true or false
		patchNames
                (
                inlet
                );              //patchNames to set value
                profile
                (
(-0.425 0 0.004 2.846 0 0)
(-0.425 0 0.013 3.114 0 0)
(-0.425 0 0.021 3.302 0 0)
(-0.425 0 0.031 3.445 0 0)
(-0.425 0 0.041 3.623 0 0)
(-0.425 0 0.051 3.796 0 0)
(-0.425 0 0.061 3.915 0 0)
(-0.425 0 0.071 4.035 0 0)
(-0.425 0 0.081 4.16 0 0)
(-0.425 0 0.093 4.297 0 0)
(-0.425 0 0.105 4.419 0 0)
(-0.425 0 0.116 4.505 0 0)
(-0.425 0 0.127 4.584 0 0)
(-0.425 0 0.137 4.659 0 0)
(-0.425 0 0.147 4.734 0 0)
(-0.425 0 0.157 4.81 0 0)
(-0.425 0 0.167 4.885 0 0)
(-0.425 0 0.176 4.956 0 0)
(-0.425 0 0.185 5.02 0 0)
(-0.425 0 0.192 5.073 0 0)
(-0.425 0 0.197 5.114 0 0)
(-0.425 0 0.202 5.148 0 0)
(-0.425 0 0.208 5.183 0 0)
(-0.425 0 0.215 5.225 0 0)
(-0.425 0 0.223 5.269 0 0)
(-0.425 0 0.231 5.319 0 0)
(-0.425 0 0.241 5.375 0 0)
(-0.425 0 0.251 5.437 0 0)
(-0.425 0 0.263 5.505 0 0)
(-0.425 0 0.275 5.579 0 0)
(-0.425 0 0.289 5.659 0 0)
(-0.425 0 0.304 5.743 0 0)
(-0.425 0 0.321 5.822 0 0)
(-0.425 0 0.34 5.911 0 0)
(-0.425 0 0.361 6.009 0 0)
(-0.425 0 0.384 6.119 0 0)
(-0.425 0 0.411 6.236 0 0)
(-0.425 0 0.44 6.354 0 0)
(-0.425 0 0.47 6.476 0 0)
(-0.425 0 0.502 6.608 0 0)
(-0.425 0 0.54 6.76 0 0)
(-0.425 0 0.582 6.933 0 0)
(-0.425 0 0.627 7.063 0 0)
(-0.425 0 0.675 7.165 0 0)
(-0.425 0 0.725 7.272 0 0)
(-0.425 0 0.775 7.379 0 0)
(-0.425 0 0.825 7.484 0 0)
(-0.425 0 0.875 7.586 0 0)
(-0.425 0 0.93 7.698 0 0)
(-0.425 0 0.99 7.82 0 0)
(-0.425 0 1.05 7.82 0 0)
(-0.425 0 1.11 7.82 0 0)
(-0.425 0 1.175 7.82 0 0)
(-0.425 0 1.245 7.82 0 0)
(-0.425 0 1.315 7.82 0 0)
(-0.425 0 1.385 7.82 0 0)
(-0.425 0 1.455 7.82 0 0)
(-0.425 0 1.525 7.82 0 0)
(-0.425 0 1.6 7.82 0 0)
(-0.425 0 1.68 7.82 0 0)
(-0.425 0 1.76 7.82 0 0)
                );              //if type is vector (x y z Ux Uy Uz)
	}

	kProfile
	{
		field k;        //targetField
                type scalar;    //type "scalar" or "vector"
		direction "z";  //direction "x","y", or "z"
		internal false ;  //
		patchNames
                (
                inlet
                );              //patchNames to set value
                profile
                (
(-0.425 0 0.004 0.365)
(-0.425 0 0.013 0.402)
(-0.425 0 0.021 0.431)
(-0.425 0 0.031 0.487)
(-0.425 0 0.041 0.514)
(-0.425 0 0.051 0.54)
(-0.425 0 0.061 0.556)
(-0.425 0 0.071 0.573)
(-0.425 0 0.081 0.59)
(-0.425 0 0.093 0.609)
(-0.425 0 0.105 0.618)
(-0.425 0 0.116 0.613)
(-0.425 0 0.127 0.609)
(-0.425 0 0.137 0.605)
(-0.425 0 0.147 0.601)
(-0.425 0 0.157 0.597)
(-0.425 0 0.167 0.593)
(-0.425 0 0.176 0.589)
(-0.425 0 0.185 0.585)
(-0.425 0 0.192 0.582)
(-0.425 0 0.197 0.58)
(-0.425 0 0.202 0.577)
(-0.425 0 0.208 0.571)
(-0.425 0 0.215 0.564)
(-0.425 0 0.223 0.557)
(-0.425 0 0.231 0.548)
(-0.425 0 0.241 0.539)
(-0.425 0 0.251 0.529)
(-0.425 0 0.263 0.518)
(-0.425 0 0.275 0.506)
(-0.425 0 0.289 0.493)
(-0.425 0 0.304 0.48)
(-0.425 0 0.321 0.474)
(-0.425 0 0.34 0.466)
(-0.425 0 0.361 0.458)
(-0.425 0 0.384 0.449)
(-0.425 0 0.411 0.436)
(-0.425 0 0.44 0.418)
(-0.425 0 0.47 0.388)
(-0.425 0 0.502 0.378)
(-0.425 0 0.54 0.355)
(-0.425 0 0.582 0.328)
(-0.425 0 0.627 0.302)
(-0.425 0 0.675 0.275)
(-0.425 0 0.725 0.247)
(-0.425 0 0.775 0.219)
(-0.425 0 0.825 0.188)
(-0.425 0 0.875 0.155)
(-0.425 0 0.93 0.119)
(-0.425 0 0.99 0.079)
(-0.425 0 1.05 0.079)
(-0.425 0 1.11 0.079)
(-0.425 0 1.175 0.079)
(-0.425 0 1.245 0.079)
(-0.425 0 1.315 0.079)
(-0.425 0 1.385 0.079)
(-0.425 0 1.455 0.079)
(-0.425 0 1.525 0.079)
(-0.425 0 1.6 0.079)
(-0.425 0 1.68 0.079)
(-0.425 0 1.76 0.079)
                );              //if type scalar (x y z p)
	}

	eProfile
	{
		field epsilon;        //targetField
                type scalar;    //type "scalar" or "vector"
		direction "z";  //direction "x","y", or "z"
		internal false ;  //
		patchNames
                (
                inlet
                );              //patchNames to set value
                profile
                (
(-0.425 0 0.004 20.666)
(-0.425 0 0.013 3.142)
(-0.425 0 0.021 2.313)
(-0.425 0 0.031 2.405)
(-0.425 0 0.041 2.706)
(-0.425 0 0.051 2.365)
(-0.425 0 0.061 1.993)
(-0.425 0 0.071 2.051)
(-0.425 0 0.081 2.108)
(-0.425 0 0.093 2.014)
(-0.425 0 0.105 1.641)
(-0.425 0 0.116 1.379)
(-0.425 0 0.127 1.372)
(-0.425 0 0.137 1.361)
(-0.425 0 0.147 1.361)
(-0.425 0 0.157 1.352)
(-0.425 0 0.167 1.332)
(-0.425 0 0.176 1.325)
(-0.425 0 0.185 1.325)
(-0.425 0 0.192 1.313)
(-0.425 0 0.197 1.243)
(-0.425 0 0.202 1.086)
(-0.425 0 0.208 1.015)
(-0.425 0 0.215 1.004)
(-0.425 0 0.223 0.982)
(-0.425 0 0.231 0.968)
(-0.425 0 0.241 0.954)
(-0.425 0 0.251 0.938)
(-0.425 0 0.263 0.919)
(-0.425 0 0.275 0.899)
(-0.425 0 0.289 0.851)
(-0.425 0 0.304 0.734)
(-0.425 0 0.321 0.664)
(-0.425 0 0.34 0.654)
(-0.425 0 0.361 0.642)
(-0.425 0 0.384 0.612)
(-0.425 0 0.411 0.554)
(-0.425 0 0.44 0.51)
(-0.425 0 0.47 0.486)
(-0.425 0 0.502 0.46)
(-0.425 0 0.54 0.433)
(-0.425 0 0.582 0.341)
(-0.425 0 0.627 0.227)
(-0.425 0 0.675 0.177)
(-0.425 0 0.725 0.159)
(-0.425 0 0.775 0.139)
(-0.425 0 0.825 0.117)
(-0.425 0 0.875 0.095)
(-0.425 0 0.93 0.073)
(-0.425 0 0.99 0.052)
(-0.425 0 1.05 0.052)
(-0.425 0 1.11 0.052)
(-0.425 0 1.175 0.052)
(-0.425 0 1.245 0.052)
(-0.425 0 1.315 0.052)
(-0.425 0 1.385 0.052)
(-0.425 0 1.455 0.052)
(-0.425 0 1.525 0.052)
(-0.425 0 1.6 0.052)
(-0.425 0 1.68 0.052)
(-0.425 0 1.76 0.052)
                );              //if type scalar (x y z p)
	}
);

// *********************************************************************** //
