/*--------------------------------*- C++ -*----------------------------------*\
| =========                 |                                                 |
| \\      /  F ield         | OpenFOAM: The Open Source CFD Toolbox           |
|  \\    /   O peration     | Version:  4.1                                   |
|   \\  /    A nd           | Web:      www.OpenFOAM.org                      |
|    \\/     M anipulation  |                                                 |
\*---------------------------------------------------------------------------*/
FoamFile
{
    version     2.0;
    format      ascii;
    class       dictionary;
    object      blockMeshDict;
}
// * * * * * * * * * * * * * * * * * * * * * * * * * * * * * * * * * * * * * //

convertToMeters 1;

vertices        
(
        (-0.9 -0.9 0)
        ( 0.9 -0.9 0)
        (-0.9  0.9 0)
        ( 0.9  0.9 0)
        (-0.9 -0.9 0.9)
        ( 0.9 -0.9 0.9)
        (-0.9  0.9 0.9)
        ( 0.9  0.9 0.9)
);

blocks          
(
    hex ( 0  1  3 2 4 5 7 6) (36 36 18) simpleGrading (1 1 1)
);

patches         
(
    patch x_
    (
        ( 0  4 6 2)
    )
    patch _x
    (
        (1 3  7 5)
    )
    patch y_
    (
        (0 1 5 4)
    )
    patch _y
    (
        ( 2  3 7 6)
    )
    wall z_
    (
        ( 0  1  3  2)
    )
    patch _z
    (
        (4 5 7 6)
    )
);

mergePatchPairs
(
);

// ************************************************************************* //
