/*--------------------------------*- C++ -*----------------------------------*\
| =========                 |                                                 |
| \\      /  F ield         | OpenFOAM: The Open Source CFD Toolbox           |
|  \\    /   O peration     | Version:  4.1                                   |
|   \\  /    A nd           | Web:      www.OpenFOAM.org                      |
|    \\/     M anipulation  |                                                 |
\*---------------------------------------------------------------------------*/
FoamFile
{
    version     2.0;
    format      ascii;
    class       dictionary;
    object      fvSolution;
}
// * * * * * * * * * * * * * * * * * * * * * * * * * * * * * * * * * * * * * //

solvers
{
    "(p|Phi)"
    {
      solver          GAMG;
      tolerance       1e-06;
      relTol          0.01;
      smoother        DIC;
      cacheAgglomeration true;
      nCellsInCoarsestLevel 10;
      agglomerator    faceAreaPair;
      mergeLevels     1;
    }

    "(U|k|epsilon|omega|R|nuTilda)"
    {
      solver          PBiCG;
      preconditioner  DILU;
      tolerance       1e-05;
      relTol          0.1;
    }
}

potentialFlow
{
    nNonOrthogonalCorrectors 10;
}

SIMPLE
{
    nNonOrthogonalCorrectors 1;
    consistent yes;
    residualControl
    {
        p                   5e-3;
        U                   5e-3;
        "(k|epsilon|omega)" 1e-3;
    }

}

relaxationFactors
{
    equations
    {
        U               0.9;
        ".*"            0.9;
    }
}

// ************************************************************************* //
