/*--------------------------------*- C++ -*----------------------------------*\
| =========                 |                                                 |
| \\      /  F ield         | OpenFOAM: The Open Source CFD Toolbox           |
|  \\    /   O peration     | Version:  4.1                                   |
|   \\  /    A nd           | Web:      www.OpenFOAM.org                      |
|    \\/     M anipulation  |                                                 |
\*---------------------------------------------------------------------------*/
FoamFile
{
    version     2.0;
    format      ascii;
    class       volScalarField;
    object      k;
}
// * * * * * * * * * * * * * * * * * * * * * * * * * * * * * * * * * * * * * //

dimensions      [0 2 -2 0 0 0 0];

internalField   uniform 0.001;

boundaryField
{
    axis
    {
        type            symmetryPlane;
    }
    inlet
    {
        type            timeVaryingMappedFixedValue;
        setAverage      off;
	offset          0;
        value           $internalField;
    }
    outlet
    {
        type            zeroGradient;
    }
    outerwall
    {
        type            kqRWallFunction;
        value           $internalField;
    }
    back
    {
        type            wedge;
    }
    front
    {
        type            wedge;
    }
}

// ************************************************************************* //
