FoamFile
{
    version         2.0;
    format          ascii;

    root            "";
    case            "";
    instance        "";
    local           "";

    class           dictionary;
    object          setDiscreteFieldsDict;
}

Fields
(
	Uprofile
	{
		field U;          //targetField        		
                type vector;      //type "scalar" or "vector" 
		direction "z";    //direction "x","y", or "z" 
		internal true ;  //set internal field or not ,false or false
		patchNames
                (
                _x
                y_
                );                //patchNames to set value 
                profile
                (
(	0	0	0	0.000 	0.000 	0	)
(	0	0	10	-0.612 	1.478 	0	)
(	0	0	20	-0.804 	1.940 	0	)
(	0	0	35	-0.880 	2.125 	0	)
(	0	0	40	-0.957 	2.310 	0	)
(	0	0	50	-1.052 	2.541 	0	)
(	0	0	60	-1.110 	2.679 	0	)
(	0	0	65	-1.148 	2.772 	0	)
(	0	0	80	-1.186 	2.864 	0	)
(	0	0	100	-1.205 	2.910 	0	)
(	0	0	120	-1.244 	3.003 	0	)
(	0	0	140	-1.301 	3.141 	0	)
(	0	0	160	-1.397 	3.372 	0	)
(	0	0	200	-1.473 	3.557 	0	)
(	0	0	240	-1.550 	3.742 	0	)
(	0	0	280	-1.607 	3.880 	0	)
(	0	0	320	-1.703 	4.111 	0	)
(	0	0	360	-1.760 	4.250 	0	)
(	0	0	400	-1.799 	4.342 	0	)
(	0	0	470	-1.837 	4.435 	0	)
(	0	0	500	-1.913 	4.619 	0	)
                );               //if type is vector (x y z Ux Uy Uz)
	}

	kProfile
	{
		field k;
                type scalar;
		direction "z";
		internal true ;
		patchNames 
                (
                _x
                y_
                );
                profile
                (
                  ( 0 0 0 0 )
                  ( 0 0 10 0.2239488 )
                  ( 0 0 20 0.3048192 )
                  ( 0 0 35 0.3358092 )
                  ( 0 0 40 0.363 )
                  ( 0 0 50 0.4002075 )
                  ( 0 0 60 0.40368 )
                  ( 0 0 65 0.38988 )
                  ( 0 0 80 0.3332748 )
                  ( 0 0 100 0.3048192 )
                  ( 0 0 120 0.2851875 )
                  ( 0 0 140 0.2718912 )
                  ( 0 0 160 0.2302128 )
                  ( 0 0 200 0.2152227 )
                  ( 0 0 240 0.1594323 )
                  ( 0 0 280 0.1037232 )
                  ( 0 0 320 0.0855468 )
                  ( 0 0 360 0.0406272 )
                  ( 0 0 400 0.0238572 )
                  ( 0 0 470 0.0110592 )
                  ( 0 0 500 0.003 )
                );              //if type scalar (x y z p)
	}
        
	eProfile
	{
		field epsilon;
                type scalar;
		direction "z";
		internal true ;
		patchNames 
                (
                _x
                y_
                );
                profile
                (
                 ( 0 0 0 0 )
                 ( 0 0 10 0.010749542 )
                 ( 0 0 20 0.004572288 )
                 ( 0 0 35 0.001343237 )
                 ( 0 0 40 0.004356 )
                 ( 0 0 50 0.003001556 )
                 ( 0 0 60 0.00181656 )
                 ( 0 0 65 0.00233928 )
                 ( 0 0 80 0.00066655 )
                 ( 0 0 100 0.000228614 )
                 ( 0 0 120 0.000427781 )
                 ( 0 0 140 0.000611755 )
                 ( 0 0 160 0.000863298 )
                 ( 0 0 200 0.000322834 )
                 ( 0 0 240 0.000239148 )
                 ( 0 0 280 0.000116689 )
                 ( 0 0 320 0.0001604 )
                 ( 0 0 360 4.57056E-05 )
                 ( 0 0 400 1.78929E-05 )
                 ( 0 0 470 4.73966E-06 )
                 ( 0 0 500 6E-06 )

                );              //if type scalar (x y z p)
	}
);
