/*--------------------------------*- C++ -*----------------------------------*\
| =========                 |                                                 |
| \\      /  F ield         | OpenFOAM: The Open Source CFD Toolbox           |
|  \\    /   O peration     | Version:  4.1                                   |
|   \\  /    A nd           | Web:      www.OpenFOAM.org                      |
|    \\/     M anipulation  |                                                 |
\*---------------------------------------------------------------------------*/
FoamFile
{
    version     2.0;
    format      ascii;
    class       scalarAverageField;
    object      values;
}
// * * * * * * * * * * * * * * * * * * * * * * * * * * * * * * * * * * * * * //

// Average
0

// Data on points
126
(
// min
20.666
20.666
3.142
2.313
2.405
2.706
2.365
1.993
2.051
2.108
2.014
1.641
1.379
1.372
1.361
1.361
1.352
1.332
1.325
1.325
1.313
1.243
1.086
1.015
1.004
0.982
0.968
0.954
0.938
0.919
0.899
0.851
0.734
0.664
0.654
0.642
0.612
0.554
0.51
0.486
0.46
0.433
0.341
0.227
0.177
0.159
0.139
0.117
0.095
0.073
0.052
0.052
0.052
0.052
0.052
0.052
0.052
0.052
0.052
0.052
0.052
0.052
0.052
// max
20.666
20.666
3.142
2.313
2.405
2.706
2.365
1.993
2.051
2.108
2.014
1.641
1.379
1.372
1.361
1.361
1.352
1.332
1.325
1.325
1.313
1.243
1.086
1.015
1.004
0.982
0.968
0.954
0.938
0.919
0.899
0.851
0.734
0.664
0.654
0.642
0.612
0.554
0.51
0.486
0.46
0.433
0.341
0.227
0.177
0.159
0.139
0.117
0.095
0.073
0.052
0.052
0.052
0.052
0.052
0.052
0.052
0.052
0.052
0.052
0.052
0.052
0.052
)

// ************************************************************************* //
