/*--------------------------------*- C++ -*----------------------------------*| =========                 |                                                 |
| \      /  F ield         | OpenFOAM: The Open Source CFD Toolbox           |
|  \    /   O peration     | Version:  2.2.2                                 |
|   \  /    A nd           | Web:      www.OpenFOAM.org                      |
|    \/     M anipulation  |                                                 |
\*---------------------------------------------------------------------------*/
FoamFile
{
    version     2.0;
    format      ascii;
    class       scalarAverageField;
    object      values;
}
// * * * * * * * * * * * * * * * * * * * * * * * * * * * * * * * * * * * * * //

// Average
0

// Data on points
126
(
// min
0.365
0.365
0.402
0.431
0.487
0.514
0.54
0.556
0.573
0.59
0.609
0.618
0.613
0.609
0.605
0.601
0.597
0.593
0.589
0.585
0.582
0.58
0.577
0.571
0.564
0.557
0.548
0.539
0.529
0.518
0.506
0.493
0.48
0.474
0.466
0.458
0.449
0.436
0.418
0.388
0.378
0.355
0.328
0.302
0.275
0.247
0.219
0.188
0.155
0.119
0.079
0.079
0.079
0.079
0.079
0.079
0.079
0.079
0.079
0.079
0.079
0.079
0.079
// max
0.365
0.365
0.402
0.431
0.487
0.514
0.54
0.556
0.573
0.59
0.609
0.618
0.613
0.609
0.605
0.601
0.597
0.593
0.589
0.585
0.582
0.58
0.577
0.571
0.564
0.557
0.548
0.539
0.529
0.518
0.506
0.493
0.48
0.474
0.466
0.458
0.449
0.436
0.418
0.388
0.378
0.355
0.328
0.302
0.275
0.247
0.219
0.188
0.155
0.119
0.079
0.079
0.079
0.079
0.079
0.079
0.079
0.079
0.079
0.079
0.079
0.079
0.079
)

// ************************************************************************* //
