/*--------------------------------*- C++ -*----------------------------------*| =========                 |                                                 |
| \      /  F ield         | OpenFOAM: The Open Source CFD Toolbox           |
|  \    /   O peration     | Version:  2.2.2                                 |
|   \  /    A nd           | Web:      www.OpenFOAM.org                      |
|    \/     M anipulation  |                                                 |
\*---------------------------------------------------------------------------*/
FoamFile
{
    version     2.0;
    format      ascii;
    class       scalarAverageField;
    object      values;
}
// * * * * * * * * * * * * * * * * * * * * * * * * * * * * * * * * * * * * * //

// Average
0

// Data on points
126
(
// min
56.61917808219178
56.61917808219178
7.8159203980099496
5.3665893271461718
4.9383983572895271
5.2645914396887159
4.3796296296296298
3.5845323741007191
3.5794066317626534
3.5728813559322039
3.3070607553366171
2.6553398058252426
2.2495921696574226
2.2528735632183912
2.2495867768595041
2.2645590682196342
2.2646566164154107
2.2462057335581789
2.2495755517826828
2.2649572649572649
2.2560137457044673
2.1431034482758622
1.8821490467937612
1.777583187390543
1.7801418439716314
1.7630161579892278
1.7664233576642334
1.7699443413729126
1.7731568998109639
1.7741312741312742
1.7766798418972332
1.7261663286004056
1.5291666666666668
1.4008438818565403
1.4034334763948497
1.4017467248908297
1.3630289532293987
1.2706422018348624
1.2200956937799043
1.2525773195876289
1.216931216931217
1.2197183098591551
1.0396341463414633
0.75165562913907291
0.64363636363636356
0.64372469635627527
0.63470319634703198
0.62234042553191493
0.61290322580645162
0.61344537815126055
0.65822784810126578
0.65822784810126578
0.65822784810126578
0.65822784810126578
0.65822784810126578
0.65822784810126578
0.65822784810126578
0.65822784810126578
0.65822784810126578
0.65822784810126578
0.65822784810126578
0.65822784810126578
0.65822784810126578
// max
56.61917808219178
56.61917808219178
7.8159203980099496
5.3665893271461718
4.9383983572895271
5.2645914396887159
4.3796296296296298
3.5845323741007191
3.5794066317626534
3.5728813559322039
3.3070607553366171
2.6553398058252426
2.2495921696574226
2.2528735632183912
2.2495867768595041
2.2645590682196342
2.2646566164154107
2.2462057335581789
2.2495755517826828
2.2649572649572649
2.2560137457044673
2.1431034482758622
1.8821490467937612
1.777583187390543
1.7801418439716314
1.7630161579892278
1.7664233576642334
1.7699443413729126
1.7731568998109639
1.7741312741312742
1.7766798418972332
1.7261663286004056
1.5291666666666668
1.4008438818565403
1.4034334763948497
1.4017467248908297
1.3630289532293987
1.2706422018348624
1.2200956937799043
1.2525773195876289
1.216931216931217
1.2197183098591551
1.0396341463414633
0.75165562913907291
0.64363636363636356
0.64372469635627527
0.63470319634703198
0.62234042553191493
0.61290322580645162
0.61344537815126055
0.65822784810126578
0.65822784810126578
0.65822784810126578
0.65822784810126578
0.65822784810126578
0.65822784810126578
0.65822784810126578
0.65822784810126578
0.65822784810126578
0.65822784810126578
0.65822784810126578
0.65822784810126578
0.65822784810126578
)

// ************************************************************************* //
