/*--------------------------------*- C++ -*----------------------------------*\
| =========                 |                                                 |
| \\      /  F ield         | OpenFOAM: The Open Source CFD Toolbox           |
|  \\    /   O peration     | Version:  4.1                                   |
|   \\  /    A nd           | Web:      www.OpenFOAM.org                      |
|    \\/     M anipulation  |                                                 |
\*---------------------------------------------------------------------------*/
FoamFile
{
    version     2.0;
    format      ascii;
    class       vectorAverageField;
    object      values;
}
// * * * * * * * * * * * * * * * * * * * * * * * * * * * * * * * * * * * * * //

// Average
(0 0 0)

// Data on points
126
(
// min
(0 0 0)
(2.846 0 0)
(3.114 0 0)
(3.302 0 0)
(3.445 0 0)
(3.623 0 0)
(3.796 0 0)
(3.915 0 0)
(4.035 0 0)
(4.16 0 0)
(4.297 0 0)
(4.419 0 0)
(4.505 0 0)
(4.584 0 0)
(4.659 0 0)
(4.734 0 0)
(4.81 0 0)
(4.885 0 0)
(4.956 0 0)
(5.02 0 0)
(5.073 0 0)
(5.114 0 0)
(5.148 0 0)
(5.183 0 0)
(5.225 0 0)
(5.269 0 0)
(5.319 0 0)
(5.375 0 0)
(5.437 0 0)
(5.505 0 0)
(5.579 0 0)
(5.659 0 0)
(5.743 0 0)
(5.822 0 0)
(5.911 0 0)
(6.009 0 0)
(6.119 0 0)
(6.236 0 0)
(6.354 0 0)
(6.476 0 0)
(6.608 0 0)
(6.76 0 0)
(6.933 0 0)
(7.063 0 0)
(7.165 0 0)
(7.272 0 0)
(7.379 0 0)
(7.484 0 0)
(7.586 0 0)
(7.698 0 0)
(7.82 0 0)
(7.82 0 0)
(7.82 0 0)
(7.82 0 0)
(7.82 0 0)
(7.82 0 0)
(7.82 0 0)
(7.82 0 0)
(7.82 0 0)
(7.82 0 0)
(7.82 0 0)
(7.82 0 0)
(7.82 0 0)
// max
(0 0 0)
(2.846 0 0)
(3.114 0 0)
(3.302 0 0)
(3.445 0 0)
(3.623 0 0)
(3.796 0 0)
(3.915 0 0)
(4.035 0 0)
(4.16 0 0)
(4.297 0 0)
(4.419 0 0)
(4.505 0 0)
(4.584 0 0)
(4.659 0 0)
(4.734 0 0)
(4.81 0 0)
(4.885 0 0)
(4.956 0 0)
(5.02 0 0)
(5.073 0 0)
(5.114 0 0)
(5.148 0 0)
(5.183 0 0)
(5.225 0 0)
(5.269 0 0)
(5.319 0 0)
(5.375 0 0)
(5.437 0 0)
(5.505 0 0)
(5.579 0 0)
(5.659 0 0)
(5.743 0 0)
(5.822 0 0)
(5.911 0 0)
(6.009 0 0)
(6.119 0 0)
(6.236 0 0)
(6.354 0 0)
(6.476 0 0)
(6.608 0 0)
(6.76 0 0)
(6.933 0 0)
(7.063 0 0)
(7.165 0 0)
(7.272 0 0)
(7.379 0 0)
(7.484 0 0)
(7.586 0 0)
(7.698 0 0)
(7.82 0 0)
(7.82 0 0)
(7.82 0 0)
(7.82 0 0)
(7.82 0 0)
(7.82 0 0)
(7.82 0 0)
(7.82 0 0)
(7.82 0 0)
(7.82 0 0)
(7.82 0 0)
(7.82 0 0)
(7.82 0 0)
)

// ************************************************************************* //
