/*--------------------------------*- C++ -*----------------------------------*\
| =========                 |                                                 |
| \\      /  F ield         | OpenFOAM: The Open Source CFD Toolbox           |
|  \\    /   O peration     | Version:  4.1                                   |
|   \\  /    A nd           | Web:      www.OpenFOAM.org                      |
|    \\/     M anipulation  |                                                 |
\*---------------------------------------------------------------------------*/
FoamFile
{
    version     2.0;
    format      ascii;;
    class       scalarAverageField;;
    object      values;;
}
// * * * * * * * * * * * * * * * * * * * * * * * * * * * * * * * * * * * * * //

// Average
0

// Data on points
50
(
// minY
12178.2
12178.2
10990.1
10396.0
6237.62
2376.24
1217.82
920.792
415.842
207.921
118.812
89.1089
59.4059
59.4059
89.1089
178.218
504.95
801.98
1366.34
1960.4
2524.75
4009.9
7574.26
11732.7
11732.7
// maxY 
12178.2
12178.2
10990.1
10396.0
6237.62
2376.24
1217.82
920.792
415.842
207.921
118.812
89.1089
59.4059
59.4059
89.1089
178.218
504.95
801.98
1366.34
1960.4
2524.75
4009.9
7574.26
11732.7
11732.7
)

// * * * * * * * * * * * * * * * * * * * * * * * * * * * * * * * * * * * * * //
