/*--------------------------------*- C++ -*----------------------------------*\
| =========                 |                                                 |
| \\      /  F ield         | OpenFOAM: The Open Source CFD Toolbox           |
|  \\    /   O peration     | Version:  4.1                                   |
|   \\  /    A nd           | Web:      www.OpenFOAM.org                      |
|    \\/     M anipulation  |                                                 |
\*---------------------------------------------------------------------------*/
FoamFile
{
    version     2.0;
    format      ascii;;
    class       vectorAverageField;;
    object      values;;
}
// * * * * * * * * * * * * * * * * * * * * * * * * * * * * * * * * * * * * * //

// Average
(0 0 0)

// Data on points
50
(
// minY
(0 0 0)
(14.8562 0 0)
(19.3756 0 0)
(20.0212 0 0)
(20.8606 0 0)
(22.0228 0 0)
(23.0128 0 0)
(24.0244 0 0)
(24.9715 0 0)
(25.9832 0 0)
(26.8658 0 0)
(27.5117 0 0)
(27.4948 0 0)
(27.5225 0 0)
(26.8127 0 0)
(25.7584 0 0)
(24.5105 0 0)
(23.8219 0 0)
(22.9827 0 0)
(21.9928 0 0)
(20.8738 0 0)
(19.3674 0 0)
(17.9686 0 0)
(15.5798 0 0)
(0 0 0)
// maxY
(0 0 0)
(14.8562 0 0)
(19.3756 0 0)
(20.0212 0 0)
(20.8606 0 0)
(22.0228 0 0)
(23.0128 0 0)
(24.0244 0 0)
(24.9715 0 0)
(25.9832 0 0)
(26.8658 0 0)
(27.5117 0 0)
(27.4948 0 0)
(27.5225 0 0)
(26.8127 0 0)
(25.7584 0 0)
(24.5105 0 0)
(23.8219 0 0)
(22.9827 0 0)
(21.9928 0 0)
(20.8738 0 0)
(19.3674 0 0)
(17.9686 0 0)
(15.5798 0 0)
(0 0 0)
)

// * * * * * * * * * * * * * * * * * * * * * * * * * * * * * * * * * * * * * //
