/*--------------------------------*- C++ -*----------------------------------*\
| =========                 |                                                 |
| \\      /  F ield         | OpenFOAM: The Open Source CFD Toolbox           |
|  \\    /   O peration     | Version:  2.0.x                                 |
|   \\  /    A nd           | Web:      www.OpenFOAM.com                      |
|    \\/     M anipulation  |                                                 |
\*---------------------------------------------------------------------------*/
FoamFile
{
    version     2.0;
    format      ascii;
    class       dictionary;
    object      setDiscreteFieldsDict;
}
// * * * * * * * * * * * * * * * * * * * * * * * * * * * * * * * * * * * * * //

Fields
(
Uprofile
{
field U;
type vector;
direction "z";
internal true;
patchNames
(
x_
y_
);
profile
(
(0 0 0 0 0 0)
(0 0 0.005 3.54123 1.46683 0)
(0 0 0.01 3.80731 1.57704 0)
(0 0 0.02 3.99208 1.65358 0)
(0 0 0.03 4.13528 1.71289 0)
(0 0 0.05 4.37919 1.81392 0)
(0 0 0.1 4.91504 2.03588 0)
(0 0 0.2 5.80381 2.40402 0)
(0 0 0.3 6.45053 2.6719 0)
(0 0 0.4 6.97529 2.88926 0)
(0 0 0.6 8.01743 3.32093 0)
(0 0 0.8 8.79995 3.64506 0)
(0 0 1 9.26097 3.83602 0)
(0 0 1.2 9.30439 3.854 0)
);
}
kProfile
{
field k;
type scalar;
direction "z";
internal true;
patchNames
(
x_
y_
);
profile
(
(0 0 0 0)
(0 0 0.005 0.529)
(0 0 0.01 0.606)
(0 0 0.02 0.667)
(0 0 0.03 0.666)
(0 0 0.05 0.73)
(0 0 0.1 0.75)
(0 0 0.2 0.744)
(0 0 0.3 0.694)
(0 0 0.4 0.635)
(0 0 0.6 0.456)
(0 0 0.8 0.281)
(0 0 1 0.126)
(0 0 1.2 0.068)
);
}
epsilonProfile
{
field epsilon;
type scalar;
direction "z";
internal true;
patchNames
(
x_
y_
);
profile
(
(0 0 0 0)
(0 0 0.005 65.4003)
(0 0 0.01 5.91456)
(0 0 0.02 3.55178)
(0 0 0.03 2.79054)
(0 0 0.05 2.64051)
(0 0 0.1 2.313)
(0 0 0.2 1.85479)
(0 0 0.3 1.31999)
(0 0 0.4 1.07696)
(0 0 0.6 0.67545)
(0 0 0.8 0.283669)
(0 0 1 0.051597)
(0 0 1.2 0.004794)
);
}
);

// ************************************************************************* //
