/*--------------------------------*- C++ -*----------------------------------*\
| =========                 |                                                 |
| \\      /  F ield         | OpenFOAM: The Open Source CFD Toolbox           |
|  \\    /   O peration     | Version:  x.x                                   |
|   \\  /    A nd           | Web:      www.OpenFOAM.org                      |
|    \\/     M anipulation  |                                                 |
\*---------------------------------------------------------------------------*/
FoamFile
{
    version     2.0;
    format      ascii;
    class       scalarAverageField;
    object      values;
}
// * * * * * * * * * * * * * * * * * * * * * * * * * * * * * * * * * * * * * //

// Average
0

// Data on points
28
(
// min
0
1373.67
150.222
59.1667
49.1111
42.4762
36.4667
27.7
21.1333
18.8889
16.4583
11.2167
4.55
0.783333
// max
0
1373.67
150.222
59.1667
49.1111
42.4762
36.4667
27.7
21.1333
18.8889
16.4583
11.2167
4.55
0.783333
)

// ************************************************************************* //
