/*--------------------------------*- C++ -*----------------------------------*\
| =========                 |                                                 |
| \\      /  F ield         | OpenFOAM: The Open Source CFD Toolbox           |
|  \\    /   O peration     | Version:  x.x                                   |
|   \\  /    A nd           | Web:      www.OpenFOAM.org                      |
|    \\/     M anipulation  |                                                 |
\*---------------------------------------------------------------------------*/
FoamFile
{
    version 2.0;
    format  ascii;
    class   dictionary;
    object  changeDictionaryDict;
}
// * * * * * * * * * * * * * * * * * * * * * * * * * * * * * * * * * * * * * //

U
{
    boundaryField
    {
        x_
        {
            type            timeVaryingMappedFixedValue;
            setAverage      off;
            offset          (0 0 0);
            value           $internalField;
        }
        y_
        {
            type  slip;
        }
        _y
        {
            type  slip;
        }
    }
}

k
{
    boundaryField
    {
        x_
        {
            type            timeVaryingMappedFixedValue;
            setAverage      off;
            offset          0;
            value           $internalField;
        }
        y_
        {
            type  slip;
        }
        _y
        {
            type  slip;
        }
    }
}

epsilon
{
    boundaryField
    {
        x_
        {
            type            timeVaryingMappedFixedValue;
            setAverage      off;
            offset          0;
            value           $internalField;
        }
        y_
        {
            type  slip;
        }
        _y
        {
            type  slip;
        }
    }
}

omega
{
    boundaryField
    {
        x_
        {
            type            timeVaryingMappedFixedValue;
            setAverage      off;
            offset          0;
            value           $internalField;
        }
        y_
        {
            type  slip;
        }
        _y
        {
            type  slip;
        }
    }
}

p
{
    boundaryField
    {
        x_
        {
            type  zeroGradient;
        }
        y_
        {
            type  slip;
        }
        _y
        {
            type  slip;
        }
    }
}

// ************************************************************************* //
