/*--------------------------------*- C++ -*----------------------------------*\
| =========                 |                                                 |
| \\      /  F ield         | OpenFOAM: The Open Source CFD Toolbox           |
|  \\    /   O peration     | Version:  2.0.x                                 |
|   \\  /    A nd           | Web:      www.OpenFOAM.com                      |
|    \\/     M anipulation  |                                                 |
\*---------------------------------------------------------------------------*/
FoamFile
{
    version     2.0;
    format      ascii;
    class       dictionary;
    object      setDiscreteFieldsDict;
}
// * * * * * * * * * * * * * * * * * * * * * * * * * * * * * * * * * * * * * //

Fields
(
Uprofile
{
field U;
type vector;
direction "z";
internal true;
patchNames
(
x_
);
profile
(
(0 0 0 0 0 0)
(0 0 0.005 3.833 0 0)
(0 0 0.01 4.121 0 0)
(0 0 0.02 4.321 0 0)
(0 0 0.03 4.476 0 0)
(0 0 0.05 4.74 0 0)
(0 0 0.1 5.32 0 0)
(0 0 0.2 6.282 0 0)
(0 0 0.3 6.982 0 0)
(0 0 0.4 7.55 0 0)
(0 0 0.6 8.678 0 0)
(0 0 0.8 9.525 0 0)
(0 0 1 10.024 0 0)
(0 0 1.2 10.071 0 0)
);
}
kProfile
{
field k;
type scalar;
direction "z";
internal true;
patchNames
(
x_
);
profile
(
(0 0 0 0)
(0 0 0.005 0.529)
(0 0 0.01 0.606)
(0 0 0.02 0.667)
(0 0 0.03 0.666)
(0 0 0.05 0.73)
(0 0 0.1 0.75)
(0 0 0.2 0.744)
(0 0 0.3 0.694)
(0 0 0.4 0.635)
(0 0 0.6 0.456)
(0 0 0.8 0.281)
(0 0 1 0.126)
(0 0 1.2 0.068)
);
}
epsilonProfile
{
field epsilon;
type scalar;
direction "z";
internal true;
patchNames
(
x_
);
profile
(
(0 0 0 0)
(0 0 0.005 65.4003)
(0 0 0.01 5.91456)
(0 0 0.02 3.55178)
(0 0 0.03 2.79054)
(0 0 0.05 2.64051)
(0 0 0.1 2.313)
(0 0 0.2 1.85479)
(0 0 0.3 1.31999)
(0 0 0.4 1.07696)
(0 0 0.6 0.67545)
(0 0 0.8 0.283669)
(0 0 1 0.051597)
(0 0 1.2 0.004794)
);
}
);

// ************************************************************************* //
