/*--------------------------------*- C++ -*----------------------------------*\
| =========                 |                                                 |
| \\      /  F ield         | OpenFOAM: The Open Source CFD Toolbox           |
|  \\    /   O peration     | Version:  4.1                                   |
|   \\  /    A nd           | Web:      www.OpenFOAM.org                      |
|    \\/     M anipulation  |                                                 |
\*---------------------------------------------------------------------------*/
FoamFile
{
    version     2.0;
    format      ascii;
    class       volScalarField;
    object      k;
}
// * * * * * * * * * * * * * * * * * * * * * * * * * * * * * * * * * * * * * //

dimensions      [0 2 -2 0 0 0 0];

internalField   uniform 0.284;

boundaryField
{
    inlet
    {
        type                mapped;
        interpolationScheme cell;
        setAverage          false;
        average             0;
        value               uniform 0.284;
    }
    outlet
    {
        type            zeroGradient;
    }
    slip
    {
        type            slip;
    }
    rotaingWall
    {
        type            kqRWallFunction;
        value           $internalField;
    }
    inletWall
    {
        type            kqRWallFunction;
        value           $internalField;
    }
    back
    {
        type            wedge;
    }
    front
    {
        type            wedge;
    }
}

// ************************************************************************* //
