/*--------------------------------*- C++ -*----------------------------------*\
| =========                 |                                                 |
| \\      /  F ield         | OpenFOAM: The Open Source CFD Toolbox           |
|  \\    /   O peration     | Version:  4.1                                   |
|   \\  /    A nd           | Web:      www.OpenFOAM.org                      |
|    \\/     M anipulation  |                                                 |
\*---------------------------------------------------------------------------*/
FoamFile
{
    version     2.0;
    format      ascii;
    class       scalarAverageField;
    object      values;
}
// * * * * * * * * * * * * * * * * * * * * * * * * * * * * * * * * * * * * * //

// Average
0

// Data on points
68
(
// min_y
0.45
1.00
1.38
1.36
0.88
0.84
0.81
0.77
0.74
0.71
0.68
0.66
0.64
0.65
0.61
0.58
0.56
0.54
0.53
0.53
0.52
0.50
0.47
0.45
0.43
0.37
0.23
0.08
0.02
0.001
0.001
0.001
0.001
0.001
// max_y
0.45
1.00
1.38
1.36
0.88
0.84
0.81
0.77
0.74
0.71
0.68
0.66
0.64
0.65
0.61
0.58
0.56
0.54
0.53
0.53
0.52
0.50
0.47
0.45
0.43
0.37
0.23
0.08
0.02
0.001
0.001
0.001
0.001
0.001
)

// ************************************************************************* //
