/*--------------------------------*- C++ -*----------------------------------*\
| =========                 |                                                 |
| \\      /  F ield         | OpenFOAM: The Open Source CFD Toolbox           |
|  \\    /   O peration     | Version:  4.1                                   |
|   \\  /    A nd           | Web:      www.OpenFOAM.org                      |
|    \\/     M anipulation  |                                                 |
\*---------------------------------------------------------------------------*/
FoamFile
{
    version     2.0;
    format      ascii;
    class       scalarAverageField;
    object      values;
}
// * * * * * * * * * * * * * * * * * * * * * * * * * * * * * * * * * * * * * //

// Average
0.0

// Data on points
68
(
//min_y
0.24
0.3
0.36
0.41
0.46
0.49
0.51
0.52
0.53
0.54
0.54
0.55
0.55
0.56
0.57
0.57
0.57
0.57
0.56
0.55
0.54
0.52
0.49
0.46
0.41
0.35
0.28
0.16
0.06
0.03
0.03
0.03
0.03
0.03
// max_y
0.24
0.3
0.36
0.41
0.46
0.49
0.51
0.52
0.53
0.54
0.54
0.55
0.55
0.56
0.57
0.57
0.57
0.57
0.56
0.55
0.54
0.52
0.49
0.46
0.41
0.35
0.28
0.16
0.06
0.03
0.03
0.03
0.03
0.03
)

// ************************************************************************* //
