/*--------------------------------*- C++ -*----------------------------------*\
| =========                 |                                                 |
| \\      /  F ield         | OpenFOAM: The Open Source CFD Toolbox           |
|  \\    /   O peration     | Version:  4.1                                   |
|   \\  /    A nd           | Web:      www.OpenFOAM.org                      |
|    \\/     M anipulation  |                                                 |
\*---------------------------------------------------------------------------*/
FoamFile
{
    version     2.0;
    format      ascii;
    class       vectorAverageField;
    object      values;
}
// * * * * * * * * * * * * * * * * * * * * * * * * * * * * * * * * * * * * * //

// Average
(0 0 0)

// Data on points
68
(
// min_y
(2.340 0 0)
(2.430 0 0)
(2.730 0 0)
(3.010 0 0)
(3.390 0 0)
(3.460 0 0)
(3.520 0 0)
(3.590 0 0)
(3.640 0 0)
(3.670 0 0)
(3.720 0 0)
(3.790 0 0)
(3.880 0 0)
(4.020 0 0)
(4.150 0 0)
(4.230 0 0)
(4.290 0 0)
(4.330 0 0)
(4.360 0 0)
(4.410 0 0)
(4.470 0 0)
(4.550 0 0)
(4.660 0 0)
(4.830 0 0)
(5.060 0 0)
(5.390 0 0)
(5.730 0 0)
(5.960 0 0)
(6.140 0 0)
(6.190 0 0)
(6.200 0 0)
(6.200 0 0)
(6.200 0 0)
(6.200 0 0)
// max_y
(2.340 0 0)
(2.430 0 0)
(2.730 0 0)
(3.010 0 0)
(3.390 0 0)
(3.460 0 0)
(3.520 0 0)
(3.590 0 0)
(3.640 0 0)
(3.670 0 0)
(3.720 0 0)
(3.790 0 0)
(3.880 0 0)
(4.020 0 0)
(4.150 0 0)
(4.230 0 0)
(4.290 0 0)
(4.330 0 0)
(4.360 0 0)
(4.410 0 0)
(4.470 0 0)
(4.550 0 0)
(4.660 0 0)
(4.830 0 0)
(5.060 0 0)
(5.390 0 0)
(5.730 0 0)
(5.960 0 0)
(6.140 0 0)
(6.190 0 0)
(6.200 0 0)
(6.200 0 0)
(6.200 0 0)
(6.200 0 0)
)

// ************************************************************************* //
