/*--------------------------------*- C++ -*----------------------------------*\
| =========                 |                                                 |
| \\      /  F ield         | OpenFOAM: The Open Source CFD Toolbox           |
|  \\    /   O peration     | Version:  2.0.x                                 |
|   \\  /    A nd           | Web:      www.OpenFOAM.org                      |
|    \\/     M anipulation  |                                                 |
\*---------------------------------------------------------------------------*/
FoamFile
{
    version     2.0;
    format      ascii;
    class       dictionary;
    object      setDiscreteFieldsDict;
}
// * * * * * * * * * * * * * * * * * * * * * * * * * * * * * * * * * * * * //

Fields
(
	Uprofile
	{
		field U;        //targetField
                type vector;    //type "scalar" or "vector"
		direction "z";  //direction "x","y", or "z"
		internal true;  //set internal field or not, true or false
		patchNames
                (
                x_
                );              //patchNames to set value
                profile
                (
(-0.98 -1.480 0.005 2.340     0     0)
(-0.98 -1.480 0.020 2.430     0     0)
(-0.98 -1.480 0.040 2.730     0     0)
(-0.98 -1.480 0.065 3.010     0     0)
(-0.98 -1.480 0.100 3.390     0     0)
(-0.98 -1.480 0.135 3.460     0     0)
(-0.98 -1.480 0.160 3.520     0     0)
(-0.98 -1.480 0.180 3.590     0     0)
(-0.98 -1.480 0.195 3.640     0     0)
(-0.98 -1.480 0.205 3.670     0     0)
(-0.98 -1.480 0.220 3.720     0     0)
(-0.98 -1.480 0.240 3.790     0     0)
(-0.98 -1.480 0.265 3.880     0     0)
(-0.98 -1.480 0.300 4.020     0     0)
(-0.98 -1.480 0.335 4.150     0     0)
(-0.98 -1.480 0.360 4.230     0     0)
(-0.98 -1.480 0.380 4.290     0     0)
(-0.98 -1.480 0.395 4.330     0     0)
(-0.98 -1.480 0.405 4.360     0     0)
(-0.98 -1.480 0.420 4.410     0     0)
(-0.98 -1.480 0.440 4.470     0     0)
(-0.98 -1.480 0.465 4.550     0     0)
(-0.98 -1.480 0.500 4.660     0     0)
(-0.98 -1.480 0.550 4.830     0     0)
(-0.98 -1.480 0.620 5.060     0     0)
(-0.98 -1.480 0.710 5.390     0     0)
(-0.98 -1.480 0.810 5.730     0     0)
(-0.98 -1.480 0.920 5.960     0     0)
(-0.98 -1.480 1.040 6.140     0     0)
(-0.98 -1.480 1.165 6.190     0     0)
(-0.98 -1.480 1.295 6.200     0     0)
(-0.98 -1.480 1.430 6.200     0     0)
(-0.98 -1.480 1.575 6.200     0     0)
(-0.98 -1.480 1.725 6.200     0     0)
                );              //if type is vector (x y z Ux Uy Uz)
	}

	kProfile
	{
		field k;        //targetField
                type scalar;    //type "scalar" or "vector"
		direction "z";  //direction "x","y", or "z"
		internal true;  //
		patchNames
                (
                x_
                );              //patchNames to set value
                profile
                (
(-0.98  -1.48 0.005  0.24)
(-0.98  -1.48  0.02   0.3)
(-0.98  -1.48  0.04  0.36)
(-0.98  -1.48 0.065  0.41)
(-0.98  -1.48   0.1  0.46)
(-0.98  -1.48 0.135  0.49)
(-0.98  -1.48  0.16  0.51)
(-0.98  -1.48  0.18  0.52)
(-0.98  -1.48 0.195  0.53)
(-0.98  -1.48 0.205  0.54)
(-0.98  -1.48  0.22  0.54)
(-0.98  -1.48  0.24  0.55)
(-0.98  -1.48 0.265  0.55)
(-0.98  -1.48   0.3  0.56)
(-0.98  -1.48 0.335  0.57)
(-0.98  -1.48  0.36  0.57)
(-0.98  -1.48  0.38  0.57)
(-0.98  -1.48 0.395  0.57)
(-0.98  -1.48 0.405  0.56)
(-0.98  -1.48  0.42  0.55)
(-0.98  -1.48  0.44  0.54)
(-0.98  -1.48 0.465  0.52)
(-0.98  -1.48   0.5  0.49)
(-0.98  -1.48  0.55  0.46)
(-0.98  -1.48  0.62  0.41)
(-0.98  -1.48  0.71  0.35)
(-0.98  -1.48  0.81  0.28)
(-0.98  -1.48  0.92  0.16)
(-0.98  -1.48  1.04  0.06)
(-0.98  -1.48 1.165  0.03)
(-0.98  -1.48 1.295  0.03)
(-0.98  -1.48  1.43  0.03)
(-0.98  -1.48 1.575  0.03)
(-0.98  -1.48 1.725  0.03)
                );              //if type scalar (x y z k)
	}

	eProfile
	{
		field epsilon;        //targetField
                type scalar;    //type "scalar" or "vector"
		direction "z";  //direction "x","y", or "z"
		internal true;  //
		patchNames
                (
                x_
                );              //patchNames to set value
                profile
                (
(-0.98 -1.480 0.005 0.45 )
(-0.98 -1.480 0.020 1.00 )
(-0.98 -1.480 0.040 1.38 )
(-0.98 -1.480 0.065 1.36 )
(-0.98 -1.480 0.100 0.88 )
(-0.98 -1.480 0.135 0.84 )
(-0.98 -1.480 0.160 0.81 )
(-0.98 -1.480 0.180 0.77 )
(-0.98 -1.480 0.195 0.74 )
(-0.98 -1.480 0.205 0.71 )
(-0.98 -1.480 0.220 0.68 )
(-0.98 -1.480 0.240 0.66 )
(-0.98 -1.480 0.265 0.64 )
(-0.98 -1.480 0.300 0.65 )
(-0.98 -1.480 0.335 0.61 )
(-0.98 -1.480 0.360 0.58 )
(-0.98 -1.480 0.380 0.56 )
(-0.98 -1.480 0.395 0.54 )
(-0.98 -1.480 0.405 0.53 )
(-0.98 -1.480 0.420 0.53 )
(-0.98 -1.480 0.440 0.52 )
(-0.98 -1.480 0.465 0.50 )
(-0.98 -1.480 0.500 0.47 )
(-0.98 -1.480 0.550 0.45 )
(-0.98 -1.480 0.620 0.43 )
(-0.98 -1.480 0.710 0.37 )
(-0.98 -1.480 0.810 0.23 )
(-0.98 -1.480 0.920 0.08 )
(-0.98 -1.480 1.040 0.02 )
(-0.98 -1.480 1.165 0.001 ) // a error occur in 0 
(-0.98 -1.480 1.295 0.001 ) // a error occur in 0 
(-0.98 -1.480 1.430 0.001 ) // a error occur in 0 
(-0.98 -1.480 1.575 0.001 ) // a error occur in 0 
(-0.98 -1.480 1.725 0.001 ) // a error occur in 0 
                );              //if type scalar (x y z e)
	}
);

// *********************************************************************** //
