/*--------------------------------*- C++ -*----------------------------------*\
| =========                 |                                                 |
| \\      /  F ield         | OpenFOAM: The Open Source CFD Toolbox           |
|  \\    /   O peration     | Version:  4.1                                   |
|   \\  /    A nd           | Web:      www.OpenFOAM.org                      |
|    \\/     M anipulation  |                                                 |
\*---------------------------------------------------------------------------*/
FoamFile
{
    version     2.0;
    format      ascii;
    class       dictionary;
    object      fvSolution;
}
// * * * * * * * * * * * * * * * * * * * * * * * * * * * * * * * * * * * * * //

solvers
{
    p
    {
        solver          GAMG;
        smoother        DIC;
        tolerance       1e-06;
        relTol          0.01;
    }

    "(U|k|epsilon|nuTilda|R|omega)"
    {
        solver          smoothSolver;
        smoother        symGaussSeidel;

        tolerance       1e-05;
        relTol          0.1;
    }
}

SIMPLE
{
    nNonOrthogonalCorrectors 0;
    consistent no;

    residualControl
    {
        p                        1e-3;
        U                        1e-3;
        "(k|epsilon|omega|f|v2)" 1e-3;
    }

    pRefCell 0;
    pRefValue 0;
}

relaxationFactors
{
    fields
    {
        p               0.3;
    }
    equations
    {
        U               0.3;
        k               0.3;
        epsilon         0.3;
        omega           0.3;
        R               0.3;
        nuTilda         0.3;
    }
    /*
    equations
    {
        U               0.9;
        ".*"            0.9;
    }
        */
}

// ************************************************************************* //
