/*--------------------------------*- C++ -*----------------------------------*\
| =========                 |                                                 |
| \\      /  F ield         | OpenFOAM: The Open Source CFD Toolbox           |
|  \\    /   O peration     | Version:  2.0.x                                 |
|   \\  /    A nd           | Web:      www.OpenFOAM.com                      |
|    \\/     M anipulation  |                                                 |
\*---------------------------------------------------------------------------*/
FoamFile
{
    version     2.0;
    format      ascii;
    class       dictionary;
    object      setDiscreteFieldsDict;
}
// * * * * * * * * * * * * * * * * * * * * * * * * * * * * * * * * * * * * * //

Fields
(
Uprofile
{
field U;
type vector;
direction "z";
internal true;
patchNames
(
x_
y_
);
profile
(
(0 0 0 0 0 0)
(0 0 0.005 2.71034 2.71034 0)
(0 0 0.01 2.91399 2.91399 0)
(0 0 0.02 3.05541 3.05541 0)
(0 0 0.03 3.16501 3.16501 0)
(0 0 0.05 3.35169 3.35169 0)
(0 0 0.1 3.76181 3.76181 0)
(0 0 0.2 4.44204 4.44204 0)
(0 0 0.3 4.93702 4.93702 0)
(0 0 0.4 5.33866 5.33866 0)
(0 0 0.6 6.13627 6.13627 0)
(0 0 0.8 6.73519 6.73519 0)
(0 0 1 7.08804 7.08804 0)
(0 0 1.2 7.12127 7.12127 0)
);
}
kProfile
{
field k;
type scalar;
direction "z";
internal true;
patchNames
(
x_
y_
);
profile
(
(0 0 0 0)
(0 0 0.005 0.529)
(0 0 0.01 0.606)
(0 0 0.02 0.667)
(0 0 0.03 0.666)
(0 0 0.05 0.73)
(0 0 0.1 0.75)
(0 0 0.2 0.744)
(0 0 0.3 0.694)
(0 0 0.4 0.635)
(0 0 0.6 0.456)
(0 0 0.8 0.281)
(0 0 1 0.126)
(0 0 1.2 0.068)
);
}
epsilonProfile
{
field epsilon;
type scalar;
direction "z";
internal true;
patchNames
(
x_
y_
);
profile
(
(0 0 0 0)
(0 0 0.005 65.4003)
(0 0 0.01 5.91456)
(0 0 0.02 3.55178)
(0 0 0.03 2.79054)
(0 0 0.05 2.64051)
(0 0 0.1 2.313)
(0 0 0.2 1.85479)
(0 0 0.3 1.31999)
(0 0 0.4 1.07696)
(0 0 0.6 0.67545)
(0 0 0.8 0.283669)
(0 0 1 0.051597)
(0 0 1.2 0.004794)
);
}
);

// ************************************************************************* //
