/*--------------------------------*- C++ -*----------------------------------*\
| =========                 |                                                 |
| \\      /  F ield         | OpenFOAM: The Open Source CFD Toolbox           |
|  \\    /   O peration     | Version:  4.1                                   |
|   \\  /    A nd           | Web:      www.OpenFOAM.org                      |
|    \\/     M anipulation  |                                                 |
\*---------------------------------------------------------------------------*/
FoamFile
{
    version     2.0;
    format      ascii;
    class       scalarAverageField;
    object      values;
}
// * * * * * * * * * * * * * * * * * * * * * * * * * * * * * * * * * * * * * //

// Average
0

// Data on points
80
(
//min_x
4.01
4.01
2.618
2.202
1.985
1.863
1.777
1.709
1.64
1.557
1.552
1.52
1.481
1.465
1.455
1.448
1.429
1.413
1.394
1.366
1.311
1.278
1.201
1.13
1.072
1.008
0.91
0.798
0.685
0.561
0.41
0.19
0.052
0.008
0.001
0.001
0.013
0.557
2.138
4.468
// max_x
4.01
4.01
2.618
2.202
1.985
1.863
1.777
1.709
1.64
1.557
1.552
1.52
1.481
1.465
1.455
1.448
1.429
1.413
1.394
1.366
1.311
1.278
1.201
1.13
1.072
1.008
0.91
0.798
0.685
0.561
0.41
0.19
0.052
0.008
0.001
0.001
0.013
0.557
2.138
4.468
)

// ************************************************************************* //
