/*--------------------------------*- C++ -*----------------------------------*\
| =========                 |                                                 |
| \\      /  F ield         | OpenFOAM: The Open Source CFD Toolbox           |
|  \\    /   O peration     | Version:  4.1                                   |
|   \\  /    A nd           | Web:      www.OpenFOAM.org                      |
|    \\/     M anipulation  |                                                 |
\*---------------------------------------------------------------------------*/
FoamFile
{
    version     2.0;
    format      ascii;
    class       scalarAverageField;
    object      values;
}
// * * * * * * * * * * * * * * * * * * * * * * * * * * * * * * * * * * * * * //

// Average
0.0

// Data on points
80
(
//min_x
0.372
0.372
0.4
0.434
0.463
0.495
0.523
0.552
0.576
0.585
0.617
0.63
0.634
0.642
0.647
0.651
0.649
0.649
0.653
0.657
0.66
0.656
0.637
0.619
0.605
0.586
0.547
0.497
0.441
0.375
0.286
0.204
0.123
0.051
0.001
0.001
0.011
0.122
0.192
0.225
//max_x
0.372
0.372
0.4
0.434
0.463
0.495
0.523
0.552
0.576
0.585
0.617
0.63
0.634
0.642
0.647
0.651
0.649
0.649
0.653
0.657
0.66
0.656
0.637
0.619
0.605
0.586
0.547
0.497
0.441
0.375
0.286
0.204
0.123
0.051
0.001
0.001
0.011
0.122
0.192
0.225
)

// ************************************************************************* //
