/*--------------------------------*- C++ -*----------------------------------*\
| =========                 |                                                 |
| \\      /  F ield         | OpenFOAM: The Open Source CFD Toolbox           |
|  \\    /   O peration     | Version:  4.1                                   |
|   \\  /    A nd           | Web:      www.OpenFOAM.org                      |
|    \\/     M anipulation  |                                                 |
\*---------------------------------------------------------------------------*/
FoamFile
{
    version     2.0;
    format      ascii;
    class       vectorAverageField;
    object      values;
}
// * * * * * * * * * * * * * * * * * * * * * * * * * * * * * * * * * * * * * //

// Average
(0 0 0)

// Data on points
80
(
//min_x
( 0 0 0 )
( 2.56 0 0 )
( 2.935 0 0 )
( 3.156 0 0 )
( 3.3 0 0 )
( 3.447 0 0 )
( 3.556 0 0 )
( 3.706 0 0 )
( 3.863 0 0 )
( 4.021 0 0 )
( 4.165 0 0 )
( 4.274 0 0 )
( 4.359 0 0 )
( 4.414 0 0 )
( 4.45 0 0 )
( 4.478 0 0 )
( 4.495 0 0 )
( 4.539 0 0 )
( 4.597 0 0 )
( 4.691 0 0 )
( 4.806 0 0 )
( 4.932 0 0 )
( 5.071 0 0 )
( 5.203 0 0 )
( 5.337 0 0 )
( 5.481 0 0 )
( 5.662 0 0 )
( 5.865 0 0 )
( 6.053 0 0 )
( 6.265 0 0 )
( 6.508 0 0 )
( 6.655 0 0 )
( 6.737 0 0 )
( 6.748 0 0 )
( 6.748 0 0 )
( 6.723 0 0 )
( 6.661 0 0 )
( 6.043 0 0 )
( 5.17 0 0 )
( 4.244 0 0 )
// max_x
( 0 0 0 )
( 2.56 0 0 )
( 2.935 0 0 )
( 3.156 0 0 )
( 3.3 0 0 )
( 3.447 0 0 )
( 3.556 0 0 )
( 3.706 0 0 )
( 3.863 0 0 )
( 4.021 0 0 )
( 4.165 0 0 )
( 4.274 0 0 )
( 4.359 0 0 )
( 4.414 0 0 )
( 4.45 0 0 )
( 4.478 0 0 )
( 4.495 0 0 )
( 4.539 0 0 )
( 4.597 0 0 )
( 4.691 0 0 )
( 4.806 0 0 )
( 4.932 0 0 )
( 5.071 0 0 )
( 5.203 0 0 )
( 5.337 0 0 )
( 5.481 0 0 )
( 5.662 0 0 )
( 5.865 0 0 )
( 6.053 0 0 )
( 6.265 0 0 )
( 6.508 0 0 )
( 6.655 0 0 )
( 6.737 0 0 )
( 6.748 0 0 )
( 6.748 0 0 )
( 6.723 0 0 )
( 6.661 0 0 )
( 6.043 0 0 )
( 5.17 0 0 )
( 4.244 0 0 )
)

// ************************************************************************* //
