/*--------------------------------*- C++ -*----------------------------------*\
| =========                 |                                                 |
| \\      /  F ield         | OpenFOAM: The Open Source CFD Toolbox           |
|  \\    /   O peration     | Version:  4.1                                   |
|   \\  /    A nd           | Web:      www.OpenFOAM.org                      |
|    \\/     M anipulation  |                                                 |
\*---------------------------------------------------------------------------*/
FoamFile
{
    version     2.0;
    format      ascii;
    class       volScalarField;
    object      k;
}
// * * * * * * * * * * * * * * * * * * * * * * * * * * * * * * * * * * * * * //

dimensions      [0 0 -1 0 0 0 0];

internalField   uniform 2129.6;

boundaryField
{
    top
    {
        type            omegaWallFunction;
        value           $internalField;
    }
    empty
    {
        type            empty;
    }
    outlet
    {
        type            zeroGradient;
    }
    bottom
    {
        type            omegaWallFunction;
        value           $internalField;
    }
    inlet
    {
        type            fixedValue;
        value           uniform 2129.6;
    }
}

// ************************************************************************* //
